<?xml version="1.0" encoding="UTF-8"?>

<!-- generated on 2025-07-28 13:08:05 by Eclipse SUMO netconvert Version 1.23.1
<netconvertConfiguration xmlns:xsi="http://www.w3.org/2001/XMLSchema-instance" xsi:noNamespaceSchemaLocation="http://sumo.dlr.de/xsd/netconvertConfiguration.xsd">

    <input>
        <type-files value="osmNetconvert.typ.xml,osmNetconvertUrbanDe.typ.xml,osmNetconvertPedestrians.typ.xml,osmNetconvertPedestriansNES.typ.xml"/>
        <osm-files value="map.osm"/>
    </input>

    <output>
        <output-file value="map.net.xml"/>
    </output>

    <projection>
        <proj.utm value="true"/>
    </projection>

    <processing>
        <geometry.remove value="true"/>
    </processing>

    <tls_building>
        <tls.join value="true"/>
        <tls.guess-signals value="true"/>
        <tls.default-type value="actuated"/>
    </tls_building>

    <ramp_guessing>
        <ramps.guess value="true"/>
    </ramp_guessing>

    <junctions>
        <junctions.join value="true"/>
    </junctions>

    <pedestrian>
        <sidewalks.guess value="true"/>
        <crossings.guess value="true"/>
    </pedestrian>

</netconvertConfiguration>
-->

<net version="1.20" junctionCornerDetail="5" walkingareas="true" limitTurnSpeed="5.50" xmlns:xsi="http://www.w3.org/2001/XMLSchema-instance" xsi:noNamespaceSchemaLocation="http://sumo.dlr.de/xsd/net_file.xsd">

    <location netOffset="-742777.17,-4205815.94" convBoundary="0.00,0.00,1153.84,675.29" origBoundary="23.734839,37.967289,23.776939,38.024552" projParameter="+proj=utm +zone=34 +ellps=WGS84 +datum=WGS84 +units=m +no_defs"/>

    <type id="highway.footway" priority="1" numLanes="1" speed="2.78" allow="pedestrian" oneway="1" width="2.00"/>
    <type id="highway.pedestrian" priority="1" numLanes="1" speed="2.78" allow="pedestrian" oneway="1" width="2.00"/>
    <type id="highway.residential" priority="3" numLanes="1" speed="13.89" disallow="pedestrian tram rail_urban rail rail_electric rail_fast ship container cable_car subway aircraft wheelchair scooter drone" oneway="0" sidewalkWidth="2.00"/>
    <type id="highway.service" priority="1" numLanes="1" speed="5.56" allow="pedestrian delivery bicycle" oneway="0"/>
    <type id="highway.steps" priority="1" numLanes="1" speed="1.39" allow="pedestrian" oneway="1" width="2.00"/>
    <type id="highway.tertiary" priority="10" numLanes="1" speed="13.89" disallow="pedestrian tram rail_urban rail rail_electric rail_fast ship container cable_car subway aircraft wheelchair scooter drone" oneway="0" sidewalkWidth="3.00"/>
    <type id="highway.track" priority="1" numLanes="1" speed="5.56" allow="pedestrian motorcycle moped bicycle" oneway="0"/>

    <edge id=":10929306407_0" function="internal">
        <lane id=":10929306407_0_0" index="0" disallow="pedestrian tram rail_urban rail rail_electric rail_fast ship container cable_car subway aircraft wheelchair scooter drone" speed="13.89" length="5.00" shape="300.12,515.42 295.78,517.89"/>
    </edge>
    <edge id=":10929306407_1" function="internal">
        <lane id=":10929306407_1_0" index="0" disallow="pedestrian tram rail_urban rail rail_electric rail_fast ship container cable_car subway aircraft wheelchair scooter drone" speed="13.89" length="4.99" shape="294.20,515.10 298.54,512.63"/>
    </edge>
    <edge id=":10929306407_c0" function="crossing" crossingEdges="190808202#1 -190808202#1">
        <lane id=":10929306407_c0_0" index="0" allow="pedestrian" speed="2.78" length="6.40" width="4.00" shape="295.58,512.48 298.75,518.04" outlineShape="297.27,511.40 300.53,517.14 297.97,520.73 298.79,520.15 300.54,519.17 301.91,518.54 300.92,516.81 300.48,517.05 297.01,519.03 293.84,513.47"/>
    </edge>
    <edge id=":10929306407_w0" function="walkingarea">
        <lane id=":10929306407_w0_0" index="0" allow="pedestrian" speed="2.78" length="2.92" width="4.00" shape="296.57,519.28 297.56,521.02 298.79,520.15 300.54,519.17 301.91,518.54 300.92,516.81 300.48,517.05 297.01,519.03"/>
    </edge>
    <edge id=":10929306407_w1" function="walkingarea">
        <lane id=":10929306407_w1_0" index="0" allow="pedestrian" speed="2.78" length="3.46" width="4.00" shape="293.84,513.47 297.32,511.49 297.75,511.24 296.76,509.51 292.42,511.97 293.41,513.71"/>
    </edge>
    <edge id=":11793815200_0" function="internal">
        <lane id=":11793815200_0_0" index="0" allow="pedestrian motorcycle moped bicycle" speed="3.65" length="4.67" shape="0.60,297.02 -0.81,296.72 -1.48,296.13 -1.41,295.24 -0.60,294.05"/>
    </edge>
    <edge id=":1570947339_0" function="internal">
        <lane id=":1570947339_0_0" index="0" disallow="pedestrian tram rail_urban rail rail_electric rail_fast ship container cable_car subway aircraft wheelchair scooter drone" speed="13.89" length="2.90" width="5.00" shape="356.99,523.33 356.96,520.43"/>
    </edge>
    <edge id=":1570947339_w0" function="walkingarea">
        <lane id=":1570947339_w0_0" index="0" allow="pedestrian" speed="2.78" length="3.00" width="2.00" shape="354.46,520.46 352.46,520.48 350.97,521.96 350.94,523.96 352.49,523.38 354.49,523.36"/>
    </edge>
    <edge id=":1570966279_0" function="internal">
        <lane id=":1570966279_0_0" index="0" disallow="pedestrian tram rail_urban rail rail_electric rail_fast ship container cable_car subway aircraft wheelchair scooter drone" speed="3.65" length="4.67" shape="315.97,502.71 317.41,502.81 318.16,503.31 318.20,504.20 317.56,505.49"/>
    </edge>
    <edge id=":1570966279_w0" function="walkingarea">
        <lane id=":1570966279_w0_0" index="0" allow="pedestrian" speed="2.78" length="6.91" width="2.00" shape="318.35,506.88 319.34,508.62 320.62,507.84 322.35,506.83 314.19,499.58 315.18,501.32"/>
    </edge>
    <edge id=":1574092861_w0" function="walkingarea">
        <lane id=":1574092861_w0_0" index="0" allow="pedestrian" speed="2.78" length="4.13" width="2.00" shape="316.26,525.45 318.15,524.79 318.04,524.01 318.15,523.74 318.38,523.54 318.71,523.43 319.16,523.40 319.19,521.40 316.93,521.42 316.14,521.54 315.38,521.79 314.51,522.22 313.39,522.85 314.40,524.58 315.18,524.34 315.51,524.42 315.80,524.63 316.05,524.97"/>
    </edge>
    <edge id=":1574092863_0" function="internal">
        <lane id=":1574092863_0_0" index="0" disallow="pedestrian tram rail_urban rail rail_electric rail_fast ship container cable_car subway aircraft wheelchair scooter drone" speed="3.65" length="4.67" shape="345.82,553.27 344.55,553.95 343.66,553.92 343.14,553.19 343.01,551.75"/>
    </edge>
    <edge id=":1574092863_w0" function="walkingarea">
        <lane id=":1574092863_w0_0" index="0" allow="pedestrian" speed="2.78" length="9.40" width="3.00" shape="341.60,551.00 338.96,549.57 349.87,555.46 347.23,554.03"/>
    </edge>
    <edge id=":1808257244_0" function="internal">
        <lane id=":1808257244_0_0" index="0" disallow="pedestrian tram rail_urban rail rail_electric rail_fast ship container cable_car subway aircraft wheelchair scooter drone" speed="13.89" length="5.00" width="5.00" shape="962.09,405.60 965.32,409.41"/>
    </edge>
    <edge id=":1808257244_c0" function="crossing" crossingEdges="314554787#0">
        <lane id=":1808257244_c0_0" index="0" allow="pedestrian" speed="2.78" length="5.00" width="4.00" shape="961.80,409.12 965.61,405.89" outlineShape="960.50,407.59 964.32,404.36 966.91,407.42 963.09,410.65 960.48,407.67 960.01,409.33 961.30,410.86 961.43,410.84"/>
    </edge>
    <edge id=":1808257244_w0" function="walkingarea">
        <lane id=":1808257244_w0_0" index="0" allow="pedestrian" speed="2.78" length="3.46" width="4.00" shape="967.23,407.79 968.75,406.50 965.53,402.69 964.00,403.98 964.32,404.36 966.91,407.42"/>
    </edge>
    <edge id=":1808257244_w1" function="walkingarea">
        <lane id=":1808257244_w1_0" index="0" allow="pedestrian" speed="2.78" length="1.50" width="4.00" shape="963.09,410.65 960.50,407.59 960.01,409.33 961.30,410.86"/>
    </edge>
    <edge id=":1808257249_w0" function="walkingarea">
        <lane id=":1808257249_w0_0" index="0" allow="pedestrian" speed="2.78" length="4.03" width="2.00" shape="938.47,432.15 940.04,430.91 939.65,430.14 939.63,429.78 939.73,429.42 939.94,429.07 940.28,428.74 938.98,427.21 938.24,427.63 937.88,427.65 937.54,427.57 937.20,427.36 936.87,427.04 935.34,428.32"/>
    </edge>
    <edge id=":2069604085_0" function="internal">
        <lane id=":2069604085_0_0" index="0" allow="pedestrian motorcycle moped bicycle" speed="3.65" length="4.67" shape="951.30,115.06 952.46,115.91 952.82,116.73 952.38,117.51 951.15,118.26"/>
    </edge>
    <edge id=":2069604085_w0" function="walkingarea">
        <lane id=":2069604085_w0_0" index="0" allow="pedestrian" speed="2.78" length="4.53" width="6.40" shape="953.23,121.27 955.03,120.40 954.11,118.21 953.41,116.61 952.67,115.08 951.96,113.93 951.37,113.46 951.07,119.85 951.98,120.04 952.36,120.24 952.70,120.52 952.98,120.86"/>
    </edge>
    <edge id=":2711969741_0" function="internal">
        <lane id=":2711969741_0_0" index="0" disallow="pedestrian tram rail_urban rail rail_electric rail_fast ship container cable_car subway aircraft wheelchair scooter drone" speed="6.47" length="9.13" shape="313.02,409.36 310.53,409.66 308.76,410.70 307.70,412.46 307.37,414.95"/>
    </edge>
    <edge id=":2711969741_1" function="internal">
        <lane id=":2711969741_1_0" index="0" disallow="pedestrian tram rail_urban rail rail_electric rail_fast ship container cable_car subway aircraft wheelchair scooter drone" speed="13.89" length="9.30" shape="307.37,405.66 307.37,414.95"/>
    </edge>
    <edge id=":2711969741_c0" function="crossing" crossingEdges="32109638#2">
        <lane id=":2711969741_c0_0" index="0" allow="pedestrian" speed="2.78" length="3.20" width="4.00" shape="311.06,407.71 310.99,410.91" outlineShape="313.06,407.76 312.99,410.95 312.99,411.05 312.99,410.95 311.75,411.04 310.74,411.36 309.96,411.91 309.40,412.69 309.30,412.99 308.99,410.87 309.06,407.67 309.09,406.31 309.41,406.80 309.98,407.19 310.77,407.49 311.80,407.67"/>
    </edge>
    <edge id=":2711969741_w0" function="walkingarea">
        <lane id=":2711969741_w0_0" index="0" allow="pedestrian" speed="2.78" length="3.53" width="4.00" shape="308.97,414.93 310.97,414.91 312.95,412.95 312.99,410.95 311.75,411.04 310.74,411.36 309.96,411.91 309.40,412.69 309.07,413.69"/>
    </edge>
    <edge id=":2711969741_w1" function="walkingarea">
        <lane id=":2711969741_w1_0" index="0" allow="pedestrian" speed="2.78" length="2.29" width="4.00" shape="313.06,407.76 310.97,405.71 308.97,405.68 309.07,406.29 309.41,406.80 309.98,407.19 310.77,407.49 311.80,407.67"/>
    </edge>
    <edge id=":3206047551_0" function="internal">
        <lane id=":3206047551_0_0" index="0" disallow="pedestrian tram rail_urban rail rail_electric rail_fast ship container cable_car subway aircraft wheelchair scooter drone" speed="13.89" length="11.70" width="6.00" shape="456.21,394.91 457.92,399.06 459.98,401.46 462.79,403.30 463.37,403.66"/>
    </edge>
    <edge id=":3206047551_1" function="internal">
        <lane id=":3206047551_1_0" index="0" disallow="pedestrian tram rail_urban rail rail_electric rail_fast ship container cable_car subway aircraft wheelchair scooter drone" speed="13.89" length="13.82" shape="456.21,394.91 460.31,408.11"/>
    </edge>
    <edge id=":3206047551_2" function="internal">
        <lane id=":3206047551_2_0" index="0" disallow="pedestrian tram rail_urban rail rail_electric rail_fast ship container cable_car subway aircraft wheelchair scooter drone" speed="13.89" length="4.00" width="6.00" shape="463.37,403.66 466.78,405.75"/>
    </edge>
    <edge id=":3206047551_c0" function="crossing" crossingEdges="314561405#0">
        <lane id=":3206047551_c0_0" index="0" allow="pedestrian" speed="2.78" length="6.00" width="4.00" shape="466.78,402.15 463.45,407.14" outlineShape="468.45,403.26 465.11,408.25 463.94,407.51 463.02,407.02 462.35,406.79 461.93,406.82 461.76,407.10 461.82,407.52 461.79,406.03 465.12,401.04 464.92,401.34 465.79,401.73"/>
    </edge>
    <edge id=":3206047551_w0" function="walkingarea">
        <lane id=":3206047551_w0_0" index="0" allow="pedestrian" speed="2.78" length="0.69" width="4.00" shape="461.84,407.63 463.75,407.04 465.11,408.25 463.94,407.51 463.02,407.02 462.35,406.79 461.93,406.82 461.76,407.10"/>
    </edge>
    <edge id=":3206047551_w1" function="walkingarea">
        <lane id=":3206047551_w1_0" index="0" allow="pedestrian" speed="2.78" length="8.95" width="4.00" shape="468.45,403.26 469.56,401.59 459.64,393.84 457.73,394.43 458.84,397.12 460.15,398.81 461.70,399.88 463.56,400.73 465.79,401.73"/>
    </edge>
    <edge id=":3206050181_0" function="internal">
        <lane id=":3206050181_0_0" index="0" disallow="pedestrian tram rail_urban rail rail_electric rail_fast ship container cable_car subway aircraft wheelchair scooter drone" speed="6.62" length="8.27" shape="457.20,380.62 455.22,381.91 454.00,383.46 453.54,385.26 453.84,387.32"/>
    </edge>
    <edge id=":3206050181_1" function="internal">
        <lane id=":3206050181_1_0" index="0" disallow="pedestrian tram rail_urban rail rail_electric rail_fast ship container cable_car subway aircraft wheelchair scooter drone" speed="13.89" length="8.00" shape="451.25,379.74 453.84,387.32"/>
    </edge>
    <edge id=":3206050181_c0" function="crossing" crossingEdges="32109617#1">
        <lane id=":3206050181_c0_0" index="0" allow="pedestrian" speed="2.78" length="3.20" width="4.00" shape="454.70,380.07 456.11,382.94" outlineShape="456.49,379.19 457.91,382.06 456.87,382.67 456.07,383.35 455.53,384.11 455.23,384.95 455.19,385.61 454.32,383.82 452.90,380.95 452.74,379.17 453.01,379.60 453.43,379.87 453.98,379.96 454.68,379.87 455.51,379.62"/>
    </edge>
    <edge id=":3206050181_w0" function="walkingarea">
        <lane id=":3206050181_w0_0" index="0" allow="pedestrian" speed="2.78" length="3.32" width="4.00" shape="455.37,386.84 457.28,386.25 458.79,383.85 457.91,382.06 456.87,382.67 456.07,383.35 455.53,384.11 455.23,384.95 455.18,385.86"/>
    </edge>
    <edge id=":3206050181_w1" function="walkingarea">
        <lane id=":3206050181_w1_0" index="0" allow="pedestrian" speed="2.78" length="1.62" width="4.00" shape="456.49,379.19 454.61,378.45 452.74,379.17 453.01,379.60 453.43,379.87 453.98,379.96 454.68,379.87 455.51,379.62"/>
    </edge>
    <edge id=":3329606896_0" function="internal">
        <lane id=":3329606896_0_0" index="0" allow="pedestrian bus delivery bicycle" speed="5.56" length="4.77" shape="929.26,135.39 929.34,133.98 929.41,133.01 929.57,132.06 929.87,130.68"/>
    </edge>
    <edge id=":3329606896_w0" function="walkingarea">
        <lane id=":3329606896_w0_0" index="0" allow="pedestrian" speed="2.78" length="4.36" width="3.20" shape="931.43,131.04 928.32,130.31 927.91,131.14 927.58,131.46 927.15,131.70 926.64,131.87 926.04,131.98 926.26,133.97 927.08,134.04 927.35,134.22 927.55,134.49 927.65,134.85 927.67,135.30 930.86,135.48 930.95,133.82 931.00,133.24 931.08,132.67 931.22,131.97"/>
    </edge>
    <edge id=":359618989_0" function="internal">
        <lane id=":359618989_0_0" index="0" disallow="pedestrian tram rail_urban rail rail_electric rail_fast ship container cable_car subway aircraft wheelchair scooter drone" speed="3.65" length="4.67" shape="632.47,635.62 632.58,637.05 632.19,637.86 631.32,638.04 629.95,637.58"/>
    </edge>
    <edge id=":359618989_w0" function="walkingarea">
        <lane id=":359618989_w0_0" index="0" allow="pedestrian" speed="2.78" length="8.40" width="2.00" shape="628.68,638.56 627.11,639.79 635.32,633.41 633.74,634.63"/>
    </edge>
    <edge id=":360015924_0" function="internal">
        <lane id=":360015924_0_0" index="0" disallow="pedestrian tram rail_urban rail rail_electric rail_fast ship container cable_car subway aircraft wheelchair scooter drone" speed="3.65" length="1.44" shape="310.79,474.62 310.77,473.18"/>
    </edge>
    <edge id=":360015924_3" function="internal">
        <lane id=":360015924_3_0" index="0" disallow="pedestrian tram rail_urban rail rail_electric rail_fast ship container cable_car subway aircraft wheelchair scooter drone" speed="3.65" length="3.23" shape="310.77,473.18 311.20,472.39 312.09,472.27 313.43,472.81"/>
    </edge>
    <edge id=":360015924_1" function="internal">
        <lane id=":360015924_1_0" index="0" disallow="pedestrian tram rail_urban rail rail_electric rail_fast ship container cable_car subway aircraft wheelchair scooter drone" speed="13.89" length="8.07" shape="309.92,465.72 310.34,468.02 311.00,469.51 312.00,470.88 313.43,472.81"/>
    </edge>
    <edge id=":360015924_2" function="internal">
        <lane id=":360015924_2_0" index="0" disallow="pedestrian tram rail_urban rail rail_electric rail_fast ship container cable_car subway aircraft wheelchair scooter drone" speed="6.78" length="9.30" shape="304.88,474.78 308.07,473.13 310.57,472.24 312.35,472.14 313.43,472.81"/>
    </edge>
    <edge id=":360015924_c0" function="crossing" crossingEdges="-117822868 117822868">
        <lane id=":360015924_c0_0" index="0" allow="pedestrian" speed="2.78" length="6.40" width="4.00" shape="313.62,470.25 308.34,473.88" outlineShape="314.75,471.90 309.47,475.52 309.16,475.24 308.71,475.10 308.14,475.13 307.45,475.32 306.62,475.66 307.21,472.23 312.48,468.60 312.38,468.67 312.52,468.94 313.10,469.73 313.83,470.65"/>
    </edge>
    <edge id=":360015924_c1" function="crossing" crossingEdges="146032085#1">
        <lane id=":360015924_c1_0" index="0" allow="pedestrian" speed="2.78" length="3.20" width="4.00" shape="308.56,467.89 311.74,467.52" outlineShape="308.23,465.91 311.60,465.52 311.75,467.03 312.08,468.11 312.52,468.94 312.86,469.40 307.59,470.01 308.10,468.84 308.36,467.42"/>
    </edge>
    <edge id=":360015924_c2" function="crossing" crossingEdges="267066386">
        <lane id=":360015924_c2_0" index="0" allow="pedestrian" speed="2.78" length="3.20" width="4.00" shape="307.41,475.17 305.81,472.40" outlineShape="305.67,476.17 304.08,473.39 305.53,472.42 306.68,471.34 307.14,470.70 307.55,471.40 309.14,474.17 309.47,475.52 309.16,475.24 308.71,475.10 308.14,475.13 307.45,475.32 306.62,475.66"/>
    </edge>
    <edge id=":360015924_w0" function="walkingarea">
        <lane id=":360015924_w0_0" index="0" allow="pedestrian" speed="2.78" length="1.79" width="4.00" shape="305.67,476.17 307.82,476.66 309.47,475.52 309.16,475.24 308.71,475.10 308.14,475.13 307.45,475.32 306.62,475.66"/>
    </edge>
    <edge id=":360015924_w1" function="walkingarea">
        <lane id=":360015924_w1_0" index="0" allow="pedestrian" speed="2.78" length="4.14" width="4.00" shape="314.75,471.90 316.40,470.77 313.49,465.30 311.50,465.53 311.75,467.03 312.08,468.11 312.52,468.94 313.10,469.73 313.83,470.65"/>
    </edge>
    <edge id=":360015924_w2" function="walkingarea">
        <lane id=":360015924_w2_0" index="0" allow="pedestrian" speed="2.78" length="4.77" width="4.00" shape="308.33,465.90 303.08,471.66 304.08,473.39 305.53,472.42 306.68,471.34 307.54,470.14 308.10,468.84 308.36,467.42"/>
    </edge>
    <edge id=":360016054_0" function="internal">
        <lane id=":360016054_0_0" index="0" disallow="pedestrian tram rail_urban rail rail_electric rail_fast ship container cable_car subway aircraft wheelchair scooter drone" speed="7.49" length="3.47" shape="362.27,530.72 360.28,530.94 358.93,531.49"/>
    </edge>
    <edge id=":360016054_1" function="internal">
        <lane id=":360016054_1_0" index="0" disallow="pedestrian tram rail_urban rail rail_electric rail_fast ship container cable_car subway aircraft wheelchair scooter drone" speed="6.87" length="2.21" width="5.00" shape="362.27,530.72 360.11,530.28"/>
    </edge>
    <edge id=":360016054_2" function="internal">
        <lane id=":360016054_2_0" index="0" disallow="pedestrian tram rail_urban rail rail_electric rail_fast ship container cable_car subway aircraft wheelchair scooter drone" speed="3.65" length="1.32" shape="362.27,530.72 361.18,529.98"/>
    </edge>
    <edge id=":360016054_6" function="internal">
        <lane id=":360016054_6_0" index="0" disallow="pedestrian tram rail_urban rail rail_electric rail_fast ship container cable_car subway aircraft wheelchair scooter drone" speed="7.49" length="4.24" shape="358.93,531.49 358.56,531.64 357.13,532.81 355.98,534.45"/>
    </edge>
    <edge id=":360016054_7" function="internal">
        <lane id=":360016054_7_0" index="0" disallow="pedestrian tram rail_urban rail rail_electric rail_fast ship container cable_car subway aircraft wheelchair scooter drone" speed="6.87" length="7.85" width="5.00" shape="360.11,530.28 359.99,530.26 358.35,528.91 357.35,526.66 356.99,523.53"/>
    </edge>
    <edge id=":360016054_8" function="internal">
        <lane id=":360016054_8_0" index="0" disallow="pedestrian tram rail_urban rail rail_electric rail_fast ship container cable_car subway aircraft wheelchair scooter drone" speed="3.65" length="3.35" shape="361.18,529.98 361.08,529.91 360.68,529.11 361.09,528.31 362.29,527.52"/>
    </edge>
    <edge id=":360016054_3" function="internal">
        <lane id=":360016054_3_0" index="0" disallow="pedestrian tram rail_urban rail rail_electric rail_fast ship container cable_car subway aircraft wheelchair scooter drone" speed="13.89" length="10.37" width="5.00" shape="353.16,532.93 354.78,530.29 356.00,528.46 356.76,526.51 356.99,523.53"/>
    </edge>
    <edge id=":360016054_4" function="internal">
        <lane id=":360016054_4_0" index="0" disallow="pedestrian tram rail_urban rail rail_electric rail_fast ship container cable_car subway aircraft wheelchair scooter drone" speed="8.91" length="11.19" shape="353.16,532.93 354.84,530.55 356.91,528.85 359.40,527.84 362.29,527.52"/>
    </edge>
    <edge id=":360016054_5" function="internal">
        <lane id=":360016054_5_0" index="0" disallow="pedestrian tram rail_urban rail rail_electric rail_fast ship container cable_car subway aircraft wheelchair scooter drone" speed="3.65" length="1.44" shape="353.16,532.93 354.44,532.25"/>
    </edge>
    <edge id=":360016054_9" function="internal">
        <lane id=":360016054_9_0" index="0" disallow="pedestrian tram rail_urban rail rail_electric rail_fast ship container cable_car subway aircraft wheelchair scooter drone" speed="3.65" length="3.23" shape="354.44,532.25 355.33,532.28 355.84,533.01 355.98,534.45"/>
    </edge>
    <edge id=":360016054_c0" function="crossing" crossingEdges="33854089#0 -33854089#0">
        <lane id=":360016054_c0_0" index="0" allow="pedestrian" speed="2.78" length="6.40" width="4.00" shape="360.30,525.91 360.26,532.31" outlineShape="362.30,525.92 362.26,532.32 361.21,532.40 360.25,532.63 359.39,533.03 358.63,533.59 358.25,534.00 358.26,532.29 358.30,525.89 359.52,523.75 359.58,524.24 359.82,524.84 360.21,525.31 360.75,525.64 361.45,525.85"/>
    </edge>
    <edge id=":360016054_c1" function="crossing" crossingEdges="117822865#0">
        <lane id=":360016054_c1_0" index="0" allow="pedestrian" speed="2.78" length="5.00" width="4.00" shape="354.51,525.56 359.51,525.50" outlineShape="354.49,523.56 359.49,523.50 359.58,524.24 359.82,524.84 360.21,525.31 360.75,525.64 361.45,525.85 361.67,525.87 359.54,527.50 354.54,527.56 354.09,527.56 354.28,526.92 354.46,525.49"/>
    </edge>
    <edge id=":360016054_c2" function="crossing" crossingEdges="-265534670 265534670">
        <lane id=":360016054_c2_0" index="0" allow="pedestrian" speed="2.78" length="6.40" width="4.00" shape="358.34,533.45 352.70,530.41" outlineShape="357.39,535.21 351.67,532.12 352.71,530.46 353.43,529.17 353.67,528.66 360.79,532.50 360.25,532.63 359.39,533.03 358.63,533.59 357.96,534.32"/>
    </edge>
    <edge id=":360016054_w0" function="walkingarea">
        <lane id=":360016054_w0_0" index="0" allow="pedestrian" speed="2.78" length="3.20" width="4.00" shape="357.39,535.21 360.03,536.63 362.24,535.32 362.26,532.32 361.21,532.40 360.25,532.63 359.39,533.03 358.63,533.59 357.96,534.32"/>
    </edge>
    <edge id=":360016054_w1" function="walkingarea">
        <lane id=":360016054_w1_0" index="0" allow="pedestrian" speed="2.78" length="2.13" width="4.00" shape="362.30,525.92 362.33,522.92 359.49,523.50 359.58,524.24 359.82,524.84 360.21,525.31 360.75,525.64 361.45,525.85"/>
    </edge>
    <edge id=":360016054_w2" function="walkingarea">
        <lane id=":360016054_w2_0" index="0" allow="pedestrian" speed="2.78" length="5.40" width="4.00" shape="354.49,523.56 352.49,523.58 349.11,530.74 351.75,532.17 352.71,530.46 353.43,529.17 353.95,528.07 354.28,526.92 354.46,525.49"/>
    </edge>
    <edge id=":360016058_0" function="internal">
        <lane id=":360016058_0_0" index="0" disallow="pedestrian tram rail_urban rail rail_electric rail_fast ship container cable_car subway aircraft wheelchair scooter drone" speed="6.41" length="9.59" shape="617.00,493.85 615.60,491.35 613.90,489.96 611.87,489.69 609.54,490.53"/>
    </edge>
    <edge id=":360016058_1" function="internal">
        <lane id=":360016058_1_0" index="0" disallow="pedestrian tram rail_urban rail rail_electric rail_fast ship container cable_car subway aircraft wheelchair scooter drone" speed="10.47" length="16.56" shape="617.00,493.85 616.19,490.23 616.65,486.51 618.39,482.71 621.39,478.81"/>
    </edge>
    <edge id=":360016058_2" function="internal">
        <lane id=":360016058_2_0" index="0" disallow="pedestrian tram rail_urban rail rail_electric rail_fast ship container cable_car subway aircraft wheelchair scooter drone" speed="3.65" length="4.67" shape="617.00,493.85 617.29,492.44 617.88,491.77 618.77,491.84 619.96,492.66"/>
    </edge>
    <edge id=":360016058_3" function="internal">
        <lane id=":360016058_3_0" index="0" disallow="pedestrian tram rail_urban rail rail_electric rail_fast ship container cable_car subway aircraft wheelchair scooter drone" speed="9.10" length="8.13" shape="623.31,481.45 621.05,484.37 619.74,487.22 619.57,488.50"/>
    </edge>
    <edge id=":360016058_4" function="internal">
        <lane id=":360016058_4_0" index="0" disallow="pedestrian tram rail_urban rail rail_electric rail_fast ship container cable_car subway aircraft wheelchair scooter drone" speed="13.89" length="16.65" shape="623.31,481.45 619.81,484.86 617.03,486.75 613.94,488.26 609.54,490.53"/>
    </edge>
    <edge id=":360016058_5" function="internal">
        <lane id=":360016058_5_0" index="0" disallow="pedestrian tram rail_urban rail rail_electric rail_fast ship container cable_car subway aircraft wheelchair scooter drone" speed="3.67" length="1.47" shape="623.31,481.45 621.84,481.50"/>
    </edge>
    <edge id=":360016058_12" function="internal">
        <lane id=":360016058_12_0" index="0" disallow="pedestrian tram rail_urban rail rail_electric rail_fast ship container cable_car subway aircraft wheelchair scooter drone" speed="9.10" length="4.23" shape="619.57,488.50 619.37,489.98 619.96,492.66"/>
    </edge>
    <edge id=":360016058_13" function="internal">
        <lane id=":360016058_13_0" index="0" disallow="pedestrian tram rail_urban rail rail_electric rail_fast ship container cable_car subway aircraft wheelchair scooter drone" speed="3.67" length="3.29" shape="621.84,481.50 621.03,481.08 620.88,480.19 621.39,478.81"/>
    </edge>
    <edge id=":360016058_6" function="internal">
        <lane id=":360016058_6_0" index="0" disallow="pedestrian tram rail_urban rail rail_electric rail_fast ship container cable_car subway aircraft wheelchair scooter drone" speed="7.03" length="12.78" shape="611.95,476.70 613.80,480.09 615.99,481.57 618.52,481.15 621.39,478.81"/>
    </edge>
    <edge id=":360016058_7" function="internal">
        <lane id=":360016058_7_0" index="0" disallow="pedestrian tram rail_urban rail rail_electric rail_fast ship container cable_car subway aircraft wheelchair scooter drone" speed="13.89" length="17.88" shape="611.95,476.70 614.09,481.54 615.91,484.70 617.76,487.84 619.96,492.66"/>
    </edge>
    <edge id=":360016058_8" function="internal">
        <lane id=":360016058_8_0" index="0" disallow="pedestrian tram rail_urban rail rail_electric rail_fast ship container cable_car subway aircraft wheelchair scooter drone" speed="9.07" length="15.43" shape="611.95,476.70 613.29,481.41 613.33,485.29 612.08,488.33 609.54,490.53"/>
    </edge>
    <edge id=":360016058_9" function="internal">
        <lane id=":360016058_9_0" index="0" disallow="pedestrian tram rail_urban rail rail_electric rail_fast ship container cable_car subway aircraft wheelchair scooter drone" speed="13.89" length="16.27" shape="607.97,487.74 612.27,485.52 615.27,484.02 617.98,482.15 621.39,478.81"/>
    </edge>
    <edge id=":360016058_10" function="internal">
        <lane id=":360016058_10_0" index="0" disallow="pedestrian tram rail_urban rail rail_electric rail_fast ship container cable_car subway aircraft wheelchair scooter drone" speed="7.92" length="4.28" shape="607.97,487.74 611.78,486.33 612.00,486.36"/>
    </edge>
    <edge id=":360016058_11" function="internal">
        <lane id=":360016058_11_0" index="0" disallow="pedestrian tram rail_urban rail rail_electric rail_fast ship container cable_car subway aircraft wheelchair scooter drone" speed="3.65" length="1.44" shape="607.97,487.74 609.41,487.85"/>
    </edge>
    <edge id=":360016058_14" function="internal">
        <lane id=":360016058_14_0" index="0" disallow="pedestrian tram rail_urban rail rail_electric rail_fast ship container cable_car subway aircraft wheelchair scooter drone" speed="7.92" length="10.96" shape="612.00,486.36 615.05,486.68 617.78,488.79 619.96,492.66"/>
    </edge>
    <edge id=":360016058_15" function="internal">
        <lane id=":360016058_15_0" index="0" disallow="pedestrian tram rail_urban rail rail_electric rail_fast ship container cable_car subway aircraft wheelchair scooter drone" speed="3.65" length="3.23" shape="609.41,487.85 610.15,488.35 610.19,489.25 609.54,490.53"/>
    </edge>
    <edge id=":360016058_c0" function="crossing" crossingEdges="146032087#0 -146032087#0">