<sumoConfiguration xmlns:xsi="http://www.w3.org/2001/XMLSchema-instance"
                   xsi:noNamespaceSchemaLocation="http://sumo.dlr.de/xsd/sumoConfiguration.xsd">
  <input>
    <net-file value="map.net.xml"/>
    <additional-files value="map.poi.xml"/>
  </input>
  <!-- Optional: you can include time settings or reporting blocks if needed -->
</sumoConfiguration>
